EV_data/13Bus/IEEE13Nodeckt_Curr_Elem.Txt

CIRCUIT ELEMENT CURRENTS

(Currents into element from indicated bus)

Power Delivery Elements

  Bus     Phase    Magnitude, A     Angle      (Real)   +j  (Imag)

ELEMENT = "Vsource.SOURCE"
SOURCEBUS     1           21.603 /_ -179.3 =    -21.601 +j  -0.26807
SOURCEBUS     2           15.429 /_   69.7 =     5.3629 +j    14.467
SOURCEBUS     3           22.872 /_  -56.8 =     12.539 +j   -19.129
------------
SOURCEBUS     0           21.603 /_    0.7 =     21.601 +j   0.26807
SOURCEBUS     0           15.429 /_ -110.3 =    -5.3629 +j   -14.467
SOURCEBUS     0           22.872 /_  123.2 =    -12.539 +j    19.129

ELEMENT = "Transformer.SUB"
SOURCEBUS     1           21.603 /_    0.7 =     21.601 +j   0.26807
SOURCEBUS     2           15.429 /_ -110.3 =    -5.3629 +j   -14.467
SOURCEBUS     3           22.872 /_  123.2 =    -12.539 +j    19.129
SOURCEBUS     0           6.1636 /_ -126.9 =    -3.6998 +j   -4.9297
------------
650           1            597.2 /_ -179.3 =    -597.15 +j   -7.4113
650           2           426.53 /_   69.7 =     148.25 +j    399.93
650           3           632.28 /_  -56.8 =     346.62 +j    -528.8
650           0           170.39 /_   53.1 =     102.28 +j    136.28

ELEMENT = "Transformer.REG1"
650           1            597.2 /_    0.7 =     597.15 +j    7.4113
650           0            597.2 /_ -179.3 =    -597.15 +j   -7.4116
------------
RG60          1           565.39 /_ -179.3 =    -565.35 +j   -7.0172
RG60          0           565.39 /_    0.7 =     565.35 +j    7.0169

ELEMENT = "Transformer.REG2"
650           2           426.53 /_ -110.3 =    -148.25 +j   -399.93
650           0           426.52 /_   69.7 =     148.25 +j    399.93
------------
RG60          2           411.11 /_   69.7 =     142.89 +j    385.48
RG60          0           411.11 /_ -110.3 =    -142.89 +j   -385.48

ELEMENT = "Transformer.REG3"
650           3           632.28 /_  123.2 =    -346.62 +j     528.8
650           0           632.28 /_  -56.8 =     346.62 +j    -528.8
------------
RG60          3           598.61 /_  -56.8 =     328.16 +j   -500.64
RG60          0           598.61 /_  123.2 =    -328.16 +j    500.64

ELEMENT = "Transformer.XFM1"
633           1           81.972 /_   -7.8 =     81.208 +j   -11.168
633           2           61.809 /_ -129.1 =    -39.001 +j    -47.95
633           3           63.648 /_  110.4 =    -22.191 +j    59.654
633           0           20.022 /_ -178.5 =    -20.015 +j  -0.53631
------------
634           1           710.43 /_  172.2 =     -703.8 +j    96.786
634           2           535.67 /_   50.9 =     338.01 +j    415.57
634           3           551.62 /_  -69.6 =     192.33 +j      -517
634           0           173.53 /_    1.5 =     173.46 +j    4.6481

ELEMENT = "Capacitor.CAP1"
675           1           81.159 /_  114.3 =    -33.387 +j    73.974
675           2           87.135 /_   -2.5 =     87.049 +j   -3.8518
675           3           80.012 /_ -124.0 =    -44.723 +j   -66.345
------------
675           0           81.159 /_  -65.7 =     33.387 +j   -73.974
675           0           87.135 /_  177.5 =    -87.049 +j    3.8518
675           0           80.012 /_   56.0 =     44.723 +j    66.345

ELEMENT = "Capacitor.CAP2"
611           3           39.977 /_ -124.2 =    -22.499 +j   -33.045
------------
611           0           39.977 /_   55.8 =     22.499 +j    33.045

ELEMENT = "Line.650632"
RG60          1           565.39 /_    0.7 =     565.35 +j    7.0172
RG60          2           411.11 /_ -110.3 =    -142.89 +j   -385.48
RG60          3           598.61 /_  123.2 =    -328.16 +j    500.64
------------
632           1            565.4 /_ -179.3 =    -565.35 +j   -7.0162
632           2           411.11 /_   69.7 =     142.89 +j    385.48
632           3           598.61 /_  -56.8 =     328.16 +j   -500.64

ELEMENT = "Line.632670"
632           1           484.49 /_    2.2 =     484.14 +j    18.184
632           2           211.19 /_ -103.2 =    -48.111 +j   -205.64
632           3           486.86 /_  129.3 =    -308.52 +j    376.63
------------
670           1           484.49 /_ -177.8 =    -484.14 +j   -18.183
670           2           211.19 /_   76.8 =     48.111 +j    205.64
670           3           486.86 /_  -50.7 =     308.52 +j   -376.63

ELEMENT = "Line.670671"
670           1           476.34 /_    2.3 =     475.98 +j    18.751
670           2           182.43 /_ -100.1 =    -31.922 +j   -179.61
670           3           431.34 /_  130.9 =    -282.68 +j     325.8
------------
671           1           476.34 /_ -177.7 =    -475.98 +j    -18.75
671           2           182.43 /_   79.9 =     31.923 +j    179.61
671           3           431.34 /_  -49.1 =     282.68 +j    -325.8

ELEMENT = "Line.671680"
671           1       0.00057155 /_  115.7 =  -0.00024762 +j 0.00051512
671           2       0.00059899 /_   -2.9 =  0.00059822 +j -3.0315E-005
671           3       0.00057138 /_ -124.5 =  -0.00032392 +j -0.00047069
------------
680           1      4.5983E-012 /_  -98.5 =  -6.8212E-013 +j -4.5475E-012
680           2      5.1849E-012 /_  164.7 =  -5.0022E-012 +j 1.3642E-012
680           3                0 /_    0.0 =          0 +j         0

ELEMENT = "Line.632633"
632           1           81.972 /_   -7.8 =     81.208 +j   -11.167
632           2           61.808 /_ -129.1 =    -39.001 +j    -47.95
632           3           63.648 /_  110.4 =    -22.192 +j    59.654
------------
633           1           81.972 /_  172.2 =    -81.208 +j    11.168
633           2           61.809 /_   50.9 =     39.001 +j     47.95
633           3           63.648 /_  -69.6 =     22.191 +j   -59.654

ELEMENT = "Line.632645"
632           3           64.407 /_   87.7 =     2.5477 +j    64.357
632           2            143.2 /_ -112.9 =    -55.782 +j   -131.89
------------
645           3           64.407 /_  -92.3 =    -2.5479 +j   -64.357
645           2            143.2 /_   67.1 =     55.782 +j    131.89

ELEMENT = "Line.645646"
645           3           64.407 /_   87.7 =     2.5479 +j    64.357
645           2           64.407 /_  -92.3 =    -2.5479 +j   -64.357
------------
646           3           64.407 /_  -92.3 =     -2.548 +j   -64.357
646           2           64.407 /_   87.7 =      2.548 +j    64.357

ELEMENT = "Line.692675"
692           1           207.21 /_   24.3 =     188.85 +j    85.256
692           2           68.837 /_  -25.7 =      62.04 +j   -29.826
692           3           126.24 /_  140.6 =    -97.602 +j     80.07
------------
675           1           207.21 /_ -155.7 =    -188.87 +j   -85.227
675           2           68.805 /_  154.3 =    -62.005 +j    29.824
675           3           126.25 /_  -39.4 =     97.584 +j   -80.096

ELEMENT = "Line.671684"
671           1           62.594 /_   -9.3 =     61.775 +j   -10.093
671           3            71.15 /_  151.1 =    -62.293 +j     34.38
------------
684           1           62.594 /_  170.7 =    -61.775 +j    10.093
684           3            71.15 /_  -28.9 =     62.293 +j    -34.38

ELEMENT = "Line.684611"
684           3            71.15 /_  151.1 =    -62.293 +j     34.38
------------
611           3            71.15 /_  -28.9 =     62.293 +j    -34.38

ELEMENT = "Line.684652"
684           1           62.594 /_   -9.3 =     61.775 +j   -10.093
------------
652           1           62.612 /_  170.7 =    -61.788 +j    10.122

ELEMENT = "Line.671692"
671           1            231.4 /_   11.4 =      226.8 +j    45.911
671           2           68.837 /_  -25.7 =      62.04 +j   -29.826
671           3           180.65 /_  138.6 =    -135.55 +j    119.42
------------
692           1            231.4 /_ -168.6 =     -226.8 +j   -45.911
692           2           68.837 /_  154.3 =     -62.04 +j    29.826
692           3           180.65 /_  -41.4 =     135.55 +j   -119.42

= = = = = = = = = = = = = = = = = = =  = = = = = = = = = = =  = =

Power Conversion Elements

  Bus     Phase    Magnitude, A     Angle      (Real)   +j  (Imag)

ELEMENT = "Load.671"
671           1           188.17 /_   -5.2 =     187.39 +j   -17.082
671           2           176.83 /_ -122.1 =    -93.964 +j    -149.8
671           3           191.78 /_  116.3 =    -84.831 +j    171.99
671           0           10.006 /_ -149.3 =    -8.5997 +j   -5.1156

ELEMENT = "Load.634A"
634           1            710.4 /_   -7.8 =     703.77 +j   -96.815
634           0            710.4 /_  172.2 =    -703.77 +j    96.815

ELEMENT = "Load.634B"
634           2           535.69 /_ -129.1 =    -338.02 +j   -415.59
634           0           535.69 /_   50.9 =     338.02 +j    415.59

ELEMENT = "Load.634C"
634           3           551.58 /_  110.4 =    -192.31 +j    516.97
634           0           551.58 /_  -69.6 =     192.31 +j   -516.97

ELEMENT = "Load.645"
645           2           85.991 /_ -128.2 =    -53.235 +j   -67.532
645           0           85.991 /_   51.8 =     53.235 +j    67.532

ELEMENT = "Load.646"
646           2           64.407 /_  -92.3 =    -2.5493 +j   -64.357
646           3           64.407 /_   87.7 =     2.5493 +j    64.357

ELEMENT = "Load.692"
692           3           54.658 /_  134.0 =    -37.941 +j    39.345
692           1           54.658 /_  -46.0 =     37.941 +j   -39.345

ELEMENT = "Load.675A"
675           1           222.53 /_    2.9 =     222.25 +j    11.236
675           0           222.53 /_ -177.1 =    -222.25 +j   -11.236

ELEMENT = "Load.675B"
675           2           36.082 /_ -134.0 =    -25.045 +j   -25.975
675           0           36.082 /_   46.0 =     25.045 +j    25.975

ELEMENT = "Load.675C"
675           3           155.68 /_  109.8 =    -52.854 +j    146.43
675           0           155.68 /_  -70.2 =     52.854 +j   -146.43

ELEMENT = "Load.611"
611           3           78.285 /_  120.5 =    -39.789 +j    67.419
611           0           78.285 /_  -59.5 =     39.789 +j   -67.419

ELEMENT = "Load.652"
652           1           62.609 /_   -9.3 =     61.785 +j   -10.127
652           0           62.609 /_  170.7 =    -61.785 +j    10.127

ELEMENT = "Load.670A"
670           1           8.1882 /_   -4.0 =     8.1685 +j  -0.56816
670           0           8.1882 /_  176.0 =    -8.1685 +j   0.56816

ELEMENT = "Load.670B"
670           2           30.653 /_ -121.9 =    -16.189 +j   -26.029
670           0           30.653 /_   58.1 =     16.189 +j    26.029

ELEMENT = "Load.670C"
670           3           57.013 /_  116.9 =    -25.836 +j    50.823
670           0           57.013 /_  -63.1 =     25.836 +j   -50.823

