EV_data/13Bus/IEEE13Nodeckt_Curr_Seq.Txt

SYMMETRICAL COMPONENT CURRENTS BY CIRCUIT ELEMENT (first 3 phases)

Element            Term      I1         I2         %I2/I1    I0         %I0/I1   %Normal %Emergency

"VSOURCE.SOURCE" .   1       19.93       2.8015    14.06      2.0545    10.31      0.00     0.00
   -                 2       19.93       2.8015    14.06      2.0545    10.31      0.00     0.00
"TRANSFORMER.SUB"    1       19.93       2.8015    14.06      2.0545    10.31     82.83    60.74
   -                 2      550.96       77.445    14.06      56.796    10.31      0.00     0.00
"TRANSFORMER.REG1"   1       597.2            0     0.00           0     0.00     78.21    57.35
   -                 2      565.39            0     0.00           0     0.00      0.00     0.00
"TRANSFORMER.REG2"   1      426.53            0     0.00           0     0.00     55.86    40.96
   -                 2      411.11            0     0.00           0     0.00      0.00     0.00
"TRANSFORMER.REG3"   1      632.28            0     0.00           0     0.00     82.80    60.72
   -                 2      598.61            0     0.00           0     0.00      0.00     0.00
"TRANSFORMER.XFM1"   1      69.137       6.2595     9.05      6.6741     9.65    107.39    78.75
   -                 2      599.18       54.249     9.05      57.842     9.65      0.00     0.00
"CAPACITOR.CAP1" .   1      82.747        1.688     2.04      3.2347     3.91      0.00     0.00
   -                 2      82.747        1.688     2.04      3.2347     3.91      0.00     0.00
"CAPACITOR.CAP2" .   1      39.977            0     0.00           0     0.00      0.00     0.00
   -                 2      39.977            0     0.00           0     0.00      0.00     0.00
"LINE.650632" ....   1      524.04       71.218    13.59      51.445     9.82    149.65    99.77
   -                 2      524.04       71.218    13.59      51.445     9.82      0.00     0.00
"LINE.632670" ....   1      392.47       110.94    28.27      76.045    19.38    121.71    81.14
   -                 2      392.47       110.94    28.27      76.045    19.38      0.00     0.00
"LINE.670671" ....   1      361.09       111.54    30.89      76.917    21.30    119.09    79.39
   -                 2      361.09       111.54    30.89      76.917    21.30      0.00     0.00
"LINE.671680" ....   1  0.00058059   1.105E-005     1.90  1.006E-005     1.73      0.00     0.00
   -                 2  3.1943E-012   1.0439E-012    32.68  2.1717E-012    67.99      0.00     0.00
"LINE.632633" ....   1      69.136       6.2595     9.05      6.6741     9.65     20.49    13.66
   -                 2      69.137       6.2595     9.05      6.6741     9.65      0.00     0.00
"LINE.632645" ....   1      64.407            0     0.00           0     0.00     16.10    10.73
   -                 2      64.407            0     0.00           0     0.00      0.00     0.00
"LINE.645646" ....   1      64.407            0     0.00           0     0.00     16.10    10.73
   -                 2      64.407            0     0.00           0     0.00      0.00     0.00
"LINE.692675" ....   1      120.39       45.371    37.69      68.198    56.65     51.80    34.53
   -                 2      120.39       45.371    37.69      68.197    56.65      0.00     0.00
"LINE.671684" ....   1      62.594            0     0.00           0     0.00     15.65    10.43
   -                 2      62.594            0     0.00           0     0.00      0.00     0.00
"LINE.684611" ....   1       71.15            0     0.00           0     0.00     17.79    11.86
   -                 2       71.15            0     0.00           0     0.00      0.00     0.00
"LINE.684652" ....   1      62.594            0     0.00           0     0.00     15.65    10.43
   -                 2      62.612            0     0.00           0     0.00      0.00     0.00
"LINE.671692" ....   1      142.97       72.217    50.51      68.198    47.70     57.85    38.57
   -                 2      142.97       72.217    50.51      68.198    47.70      0.00     0.00
"LOAD.671" .......   1      185.55        6.786     3.66      3.3354     1.80      0.00     0.00
"LOAD.634A" ......   1       710.4            0     0.00           0     0.00      0.00     0.00
"LOAD.634B" ......   1      535.69            0     0.00           0     0.00      0.00     0.00
"LOAD.634C" ......   1      551.58            0     0.00           0     0.00      0.00     0.00
"LOAD.645" .......   1      85.991            0     0.00           0     0.00      0.00     0.00
"LOAD.646" .......   1      64.407            0     0.00           0     0.00      0.00     0.00
"LOAD.692" .......   1      54.658            0     0.00           0     0.00      0.00     0.00
"LOAD.675A" ......   1      222.53            0     0.00           0     0.00      0.00     0.00
"LOAD.675B" ......   1      36.082            0     0.00           0     0.00      0.00     0.00
"LOAD.675C" ......   1      155.68            0     0.00           0     0.00      0.00     0.00
"LOAD.611" .......   1      78.285            0     0.00           0     0.00      0.00     0.00
"LOAD.652" .......   1      62.609            0     0.00           0     0.00      0.00     0.00
"LOAD.670A" ......   1      8.1882            0     0.00           0     0.00      0.00     0.00
"LOAD.670B" ......   1      30.653            0     0.00           0     0.00      0.00     0.00
"LOAD.670C" ......   1      57.013            0     0.00           0     0.00      0.00     0.00
