EV_data/13Bus/IEEE13Nodeckt_Power_elem_kVA.txt

CIRCUIT ELEMENT POWER FLOW

(Power Flow into element from indicated Bus)

Power Delivery Elements

  Bus     Phase     kW     +j   kvar         kVA         PF

ELEMENT = "Vsource.SOURCE"
SOURCEBUS     1     -1251.0 +j   -701.5     1434.3       0.8722
SOURCEBUS     2      -960.6 +j   -355.9     1024.4       0.9377
SOURCEBUS     3     -1356.1 +j   -683.4     1518.5       0.8930
   TERMINAL TOTAL . -3567.7 +j  -1740.8     3969.7       0.8987
SOURCEBUS     0         0.0 +j      0.0        0.0       1.0000
SOURCEBUS     0         0.0 +j      0.0        0.0       1.0000
SOURCEBUS     0         0.0 +j      0.0        0.0       1.0000
   TERMINAL TOTAL .     0.0 +j      0.0        0.0       1.0000

ELEMENT = "Transformer.SUB"
SOURCEBUS     1      1251.0 +j    701.5     1434.3       0.8722
SOURCEBUS     2       960.6 +j    355.9     1024.4       0.9377
SOURCEBUS     3      1356.1 +j    683.4     1518.5       0.8930
SOURCEBUS     0         0.0 +j      0.0        0.0       1.0000
   TERMINAL TOTAL .  3567.7 +j   1740.8     3969.7       0.8987
650           1     -1251.0 +j   -701.4     1434.2       0.8723
650           2      -960.6 +j   -355.9     1024.4       0.9377
650           3     -1356.0 +j   -683.3     1518.5       0.8930
650           0         0.0 +j      0.0        0.0       1.0000
   TERMINAL TOTAL . -3567.7 +j  -1740.5     3969.6       0.8987

ELEMENT = "Transformer.REG1"
650           1      1251.0 +j    701.4     1434.2       0.8723
650           0         0.0 +j      0.0        0.0       1.0000
   TERMINAL TOTAL .  1251.0 +j    701.4     1434.2       0.8723
RG60          1     -1250.9 +j   -701.2     1434.0       0.8723
RG60          0         0.0 +j      0.0        0.0       1.0000
   TERMINAL TOTAL . -1250.9 +j   -701.2     1434.0       0.8723

ELEMENT = "Transformer.REG2"
650           2       960.6 +j    355.9     1024.4       0.9377
650           0         0.0 +j      0.0        0.0       1.0000
   TERMINAL TOTAL .   960.6 +j    355.9     1024.4       0.9377
RG60          2      -960.5 +j   -355.8     1024.3       0.9377
RG60          0         0.0 +j      0.0        0.0       1.0000
   TERMINAL TOTAL .  -960.5 +j   -355.8     1024.3       0.9377

ELEMENT = "Transformer.REG3"
650           3      1356.0 +j    683.3     1518.5       0.8930
650           0         0.0 +j      0.0        0.0       1.0000
   TERMINAL TOTAL .  1356.0 +j    683.3     1518.5       0.8930
RG60          3     -1355.9 +j   -683.1     1518.3       0.8931
RG60          0         0.0 +j      0.0        0.0       1.0000
   TERMINAL TOTAL . -1355.9 +j   -683.1     1518.3       0.8931

ELEMENT = "Transformer.XFM1"
633           1       162.6 +j    114.7      198.9       0.8172
633           2       121.4 +j     92.6      152.7       0.7951
633           3       121.6 +j     92.8      152.9       0.7948
633           0         0.0 +j      0.0        0.0       1.0000
   TERMINAL TOTAL .   405.6 +j    300.1      504.5       0.8039
634           1      -160.0 +j   -110.0      194.2       0.8240
634           2      -120.0 +j    -90.0      150.0       0.8000
634           3      -120.0 +j    -90.0      150.0       0.8000
634           0         0.0 +j      0.0        0.0       1.0000
   TERMINAL TOTAL .  -400.0 +j   -290.0      494.1       0.8096

ELEMENT = "Capacitor.CAP1"
675           1         0.0 +j   -190.0      190.0       1.0000
675           2         0.0 +j   -219.0      219.0       1.0000
675           3         0.0 +j   -184.6      184.6       1.0000
   TERMINAL TOTAL .     0.0 +j   -593.6      593.6       1.0000
675           0         0.0 +j      0.0        0.0       1.0000
675           0         0.0 +j      0.0        0.0       1.0000
675           0         0.0 +j      0.0        0.0       1.0000
   TERMINAL TOTAL .     0.0 +j      0.0        0.0       1.0000

ELEMENT = "Capacitor.CAP2"
611           3         0.0 +j    -92.1       92.1       1.0000
   TERMINAL TOTAL .     0.0 +j    -92.1       92.1       1.0000
611           0         0.0 +j      0.0        0.0       1.0000
   TERMINAL TOTAL .     0.0 +j      0.0        0.0       1.0000

ELEMENT = "Line.650632"
RG60          1      1250.9 +j    701.2     1434.0       0.8723
RG60          2       960.5 +j    355.8     1024.3       0.9377
RG60          3      1355.9 +j    683.1     1518.3       0.8931
   TERMINAL TOTAL .  3567.3 +j   1740.2     3969.2       0.8988
632           1     -1229.3 +j   -618.8     1376.3       0.8932
632           2      -964.7 +j   -324.6     1017.9       0.9478
632           3     -1312.0 +j   -598.7     1442.2       0.9097
   TERMINAL TOTAL . -3506.1 +j  -1542.2     3830.2       0.9154

ELEMENT = "Line.632670"
632           1      1066.4 +j    503.6     1179.3       0.9042
632           2       512.5 +j    103.6      522.9       0.9802
632           3      1112.7 +j    371.2     1173.0       0.9486
   TERMINAL TOTAL .  2691.6 +j    978.4     2863.9       0.9398
670           1     -1063.3 +j   -481.0     1167.0       0.9111
670           2      -514.7 +j   -102.1      524.7       0.9809
670           3     -1100.4 +j   -353.1     1155.7       0.9522
   TERMINAL TOTAL . -2678.4 +j   -936.1     2837.3       0.9440

ELEMENT = "Line.670671"
670           1      1046.3 +j    471.0     1147.4       0.9119
670           2       448.7 +j     64.1      453.2       0.9900
670           3       983.4 +j    285.1     1023.9       0.9605
   TERMINAL TOTAL .  2478.4 +j    820.1     2610.5       0.9494
671           1     -1038.7 +j   -425.7     1122.5       0.9253
671           2      -453.3 +j    -61.5      457.4       0.9909
671           3      -963.2 +j   -259.0      997.4       0.9657
   TERMINAL TOTAL . -2455.2 +j   -746.2     2566.1       0.9568

ELEMENT = "Line.671680"
671           1        -0.0 +j     -0.0        0.0       0.0198
671           2         0.0 +j     -0.0        0.0      -0.0095
671           3         0.0 +j     -0.0        0.0      -0.0093
   TERMINAL TOTAL .     0.0 +j     -0.0        0.0      -0.0000
680           1        -0.0 +j      0.0        0.0      -0.5457
680           2        -0.0 +j      0.0        0.0      -0.2232
680           3         0.0 +j      0.0        0.0       1.0000
   TERMINAL TOTAL .    -0.0 +j      0.0        0.0      -0.3756

ELEMENT = "Line.632633"
632           1       162.9 +j    115.2      199.5       0.8165
632           2       121.6 +j     92.9      153.0       0.7946
632           3       121.9 +j     93.1      153.3       0.7948
   TERMINAL TOTAL .   406.4 +j    301.2      505.8       0.8034
633           1      -162.6 +j   -114.7      198.9       0.8172
633           2      -121.4 +j    -92.6      152.7       0.7951
633           3      -121.6 +j    -92.8      152.9       0.7948
   TERMINAL TOTAL .  -405.6 +j   -300.1      504.5       0.8039

ELEMENT = "Line.632645"
632           3        77.5 +j    134.4      155.2       0.4994
632           2       330.6 +j    128.1      354.5       0.9324
   TERMINAL TOTAL .   408.1 +j    262.6      485.2       0.8410
645           3       -77.3 +j   -134.2      154.9       0.4990
645           2      -328.0 +j   -125.9      351.4       0.9336
   TERMINAL TOTAL .  -405.3 +j   -260.2      481.6       0.8415

ELEMENT = "Line.645646"
645           3        77.3 +j    134.2      154.9       0.4990
645           2       158.0 +j      1.0      158.0       1.0000
   TERMINAL TOTAL .   235.3 +j    135.2      271.4       0.8671
646           3       -77.0 +j   -134.0      154.6       0.4983
646           2      -157.8 +j     -0.7      157.8       1.0000
   TERMINAL TOTAL .  -234.8 +j   -134.8      270.7       0.8673

ELEMENT = "Line.692675"
692           1       488.3 +j      2.1      488.3       1.0000
692           2        68.3 +j   -158.5      172.6      -0.3959
692           3       290.6 +j     27.3      291.9       0.9956
   TERMINAL TOTAL .   847.3 +j   -129.1      857.1      -0.9886
675           1      -485.0 +j     -0.0      485.0       1.0000
675           2       -68.0 +j    159.0      172.9      -0.3932
675           3      -290.1 +j    -27.4      291.3       0.9956
   TERMINAL TOTAL .  -843.1 +j    131.6      853.3      -0.9880

ELEMENT = "Line.671684"
671           1       122.5 +j     82.1      147.5       0.8308
671           3       163.9 +j    -14.6      164.5      -0.9960
   TERMINAL TOTAL .   286.4 +j     67.5      294.3       0.9734
684           1      -122.3 +j    -81.9      147.2       0.8310
684           3      -163.5 +j     14.9      164.2      -0.9959
   TERMINAL TOTAL .  -285.8 +j    -67.0      293.6       0.9736

ELEMENT = "Line.684611"
684           3       163.5 +j    -14.9      164.2      -0.9959
   TERMINAL TOTAL .   163.5 +j    -14.9      164.2      -0.9959
611           3      -163.1 +j     15.3      163.8      -0.9956
   TERMINAL TOTAL .  -163.1 +j     15.3      163.8      -0.9956

ELEMENT = "Line.684652"
684           1       122.3 +j     81.9      147.2       0.8310
   TERMINAL TOTAL .   122.3 +j     81.9      147.2       0.8310
652           1      -121.5 +j    -81.7      146.4       0.8300
   TERMINAL TOTAL .  -121.5 +j    -81.7      146.4       0.8300

ELEMENT = "Line.671692"
671           1       531.1 +j    123.6      545.3       0.9740
671           2        68.3 +j   -158.5      172.6      -0.3959
671           3       414.3 +j     53.6      417.7       0.9917
   TERMINAL TOTAL .  1013.7 +j     18.7     1013.9       0.9998
692           1      -531.1 +j   -123.6      545.3       0.9740
692           2       -68.3 +j    158.5      172.6      -0.3959
692           3      -414.3 +j    -53.6      417.7       0.9917
   TERMINAL TOTAL . -1013.7 +j    -18.7     1013.9       0.9998

= = = = = = = = = = = = = = = = = = =  = = = = = = = = = = =  = =

Power Conversion Elements

  Bus     Phase     kW   +j  kvar         kVA         PF

ELEMENT = "Load.671"
671           1     385.0 +j  220.0      443.4       0.8682
671           2     385.0 +j  220.0      443.4       0.8683
671           3     385.0 +j  220.0      443.5       0.8682
671           0       0.0 +j    0.0        0.0       1.0000
  TERMINAL TOTAL  .  1155.0 +j    660.0     1330.3       0.8682

ELEMENT = "Load.634A"
634           1     160.0 +j  110.0      194.2       0.8240
634           0       0.0 +j    0.0        0.0       1.0000
  TERMINAL TOTAL  .   160.0 +j    110.0      194.2       0.8240

ELEMENT = "Load.634B"
634           2     120.0 +j   90.0      150.0       0.8000
634           0       0.0 +j    0.0        0.0       1.0000
  TERMINAL TOTAL  .   120.0 +j     90.0      150.0       0.8000

ELEMENT = "Load.634C"
634           3     120.0 +j   90.0      150.0       0.8000
634           0       0.0 +j    0.0        0.0       1.0000
  TERMINAL TOTAL  .   120.0 +j     90.0      150.0       0.8000

ELEMENT = "Load.645"
645           2     170.0 +j  125.0      211.0       0.8057
645           0       0.0 +j    0.0        0.0       1.0000
  TERMINAL TOTAL  .   170.0 +j    125.0      211.0       0.8057

ELEMENT = "Load.646"
646           2     157.8 +j    0.7      157.8       1.0000
646           3      77.0 +j  134.0      154.6       0.4983
  TERMINAL TOTAL  .   234.8 +j    134.8      270.7       0.8673

ELEMENT = "Load.692"
692           3     123.6 +j   26.4      126.4       0.9780
692           1      42.8 +j  121.5      128.8       0.3325
  TERMINAL TOTAL  .   166.4 +j    147.8      222.6       0.7476

ELEMENT = "Load.675A"
675           1     485.0 +j  190.0      520.9       0.9311
675           0       0.0 +j    0.0        0.0       1.0000
  TERMINAL TOTAL  .   485.0 +j    190.0      520.9       0.9311

ELEMENT = "Load.675B"
675           2      68.0 +j   60.0       90.7       0.7499
675           0       0.0 +j    0.0        0.0       1.0000
  TERMINAL TOTAL  .    68.0 +j     60.0       90.7       0.7499

ELEMENT = "Load.675C"
675           3     290.0 +j  212.0      359.3       0.8073
675           0       0.0 +j    0.0        0.0       1.0000
  TERMINAL TOTAL  .   290.0 +j    212.0      359.3       0.8073

ELEMENT = "Load.611"
611           3     163.1 +j   76.8      180.3       0.9048
611           0       0.0 +j    0.0        0.0       1.0000
  TERMINAL TOTAL  .   163.1 +j     76.8      180.3       0.9048

ELEMENT = "Load.652"
652           1     121.5 +j   81.7      146.4       0.8300
652           0       0.0 +j    0.0        0.0       1.0000
  TERMINAL TOTAL  .   121.5 +j     81.7      146.4       0.8300

ELEMENT = "Load.670A"
670           1      17.0 +j   10.0       19.7       0.8619
670           0       0.0 +j    0.0        0.0       1.0000
  TERMINAL TOTAL  .    17.0 +j     10.0       19.7       0.8619

ELEMENT = "Load.670B"
670           2      66.0 +j   38.0       76.2       0.8666
670           0       0.0 +j    0.0        0.0       1.0000
  TERMINAL TOTAL  .    66.0 +j     38.0       76.2       0.8666

ELEMENT = "Load.670C"
670           3     117.0 +j   68.0      135.3       0.8646
670           0       0.0 +j    0.0        0.0       1.0000
  TERMINAL TOTAL  .   117.0 +j     68.0      135.3       0.8646


Total Circuit Losses =  113.6 +j  332.4
